Version 4
SHEET 1 880 680
WIRE 96 80 -176 80
WIRE 416 80 288 80
WIRE 288 96 288 80
WIRE 288 96 256 96
WIRE 608 96 576 96
WIRE 672 96 608 96
WIRE 96 112 16 112
WIRE 416 112 336 112
WIRE 608 192 608 96
WIRE 608 192 384 192
WIRE 16 208 16 112
WIRE 16 208 -48 208
WIRE 336 208 336 112
WIRE 608 208 336 208
WIRE 384 272 384 192
WIRE 432 272 384 272
WIRE 16 288 16 208
WIRE 96 288 16 288
WIRE 608 288 608 208
WIRE 608 288 592 288
WIRE 688 288 608 288
WIRE 432 304 256 304
WIRE -176 320 -176 80
WIRE -96 320 -176 320
WIRE 96 320 -32 320
WIRE -176 368 -176 320
FLAG 672 96 Q
IOPIN 672 96 Out
FLAG 688 288 Qbar
IOPIN 688 288 Out
FLAG 160 32 VDD
IOPIN 160 32 In
FLAG 480 32 VDD
IOPIN 480 32 In
FLAG 496 224 VDD
IOPIN 496 224 In
FLAG 160 240 VDD
IOPIN 160 240 In
FLAG 160 368 0
FLAG 496 352 0
FLAG 480 160 0
FLAG 160 160 0
FLAG -352 96 VDD
IOPIN -352 96 In
FLAG -352 176 0
FLAG -176 368 D
IOPIN -176 368 In
FLAG -48 208 CLK
IOPIN -48 208 In
SYMBOL NAND 176 192 R0
SYMATTR InstName X1
SYMBOL NAND 176 400 R0
SYMATTR InstName X2
SYMBOL NAND 496 192 R0
SYMATTR InstName X3
SYMBOL NAND 512 384 R0
SYMATTR InstName X4
SYMBOL Digital\\inv -96 256 R0
SYMATTR InstName A1
SYMBOL voltage -352 80 R0
WINDOW 123 0 0 Left 0
WINDOW 39 0 0 Left 0
SYMATTR InstName V1
SYMATTR Value 1.8v
