Version 4
SHEET 1 916 680
FLAG 272 -208 D
IOPIN 272 -208 In
FLAG 272 -176 CLK
IOPIN 272 -176 In
FLAG 432 -208 Q
IOPIN 432 -208 Out
FLAG 432 -176 Qbar
IOPIN 432 -176 Out
FLAG 144 96 0
FLAG 144 272 0
FLAG 144 16 D
IOPIN 144 16 In
FLAG 144 192 CLK
IOPIN 144 192 In
SYMBOL voltage 144 0 R0
WINDOW 0 24 16 Invisible 2
SYMATTR InstName D
SYMATTR Value PULSE(0  5 0 5n 5n 20m 40m)
SYMBOL voltage 144 176 R0
WINDOW 0 24 16 Invisible 2
SYMATTR InstName CLK
SYMATTR Value PULSE(0 5 0 5n 5n 40m 80m)
SYMBOL FF 464 0 R0
SYMATTR InstName X1
TEXT 256 -112 Left 2 !.inc tsmc018.lib
TEXT 256 -88 Left 2 !;.tran 0.2
TEXT 256 -64 Left 2 !.param w=0.5u
TEXT 256 -40 Left 2 !.param l=180n
TEXT 264 -16 Left 2 !.op
