Version 4
SHEET 1 880 712
WIRE 112 128 16 128
WIRE 112 144 64 144
WIRE 64 288 0 288
WIRE 64 416 0 416
WIRE 64 528 0 528
WIRE 64 640 0 640
FLAG 16 128 A
IOPIN 16 128 In
FLAG 64 144 B
IOPIN 64 144 In
FLAG 112 160 C
IOPIN 112 160 In
FLAG 192 96 VDD
IOPIN 192 96 In
FLAG 272 144 OUT
IOPIN 272 144 Out
FLAG 192 192 0
FLAG 144 288 0
FLAG 144 416 0
FLAG 144 528 0
FLAG 144 640 0
FLAG 0 288 VDD
IOPIN 0 288 In
FLAG 0 416 A
IOPIN 0 416 In
FLAG 0 528 B
IOPIN 0 528 In
FLAG 0 640 C
IOPIN 0 640 In
SYMBOL voltage 48 288 R270
WINDOW 0 32 56 Invisible 2
WINDOW 3 -32 56 VBottom 2
SYMATTR InstName V1
SYMATTR Value 1.8v
SYMBOL voltage 48 416 R270
WINDOW 0 32 56 Invisible 2
WINDOW 3 -32 56 VBottom 2
WINDOW 123 0 0 Left 0
WINDOW 39 0 0 Left 0
SYMATTR InstName V2
SYMATTR Value PULSE(0 1 10m 1n 1n 10m 20m)
SYMBOL voltage 48 528 R270
WINDOW 0 32 56 Invisible 2
WINDOW 3 -32 56 VBottom 2
WINDOW 123 0 0 Left 0
WINDOW 39 0 0 Left 0
SYMATTR InstName V3
SYMATTR Value PULSE(0 1 10m 1n 1n 20m 40m)
SYMBOL voltage 48 640 R270
WINDOW 0 32 56 Invisible 2
WINDOW 3 -32 56 VBottom 2
WINDOW 123 0 0 Left 0
WINDOW 39 0 0 Left 0
SYMATTR InstName V4
SYMATTR Value PULSE(0 1 10m 1n 1n 40m 80m)
SYMBOL NAND3 192 368 R0
SYMATTR InstName X2
TEXT 336 280 Left 2 !.inc tsmc018.lib
TEXT 336 312 Left 2 !.param l=180n
TEXT 336 344 Left 2 !.param w=0.5u
TEXT 336 376 Left 2 !.tran 0.2
