Version 4
SHEET 1 880 680
WIRE -112 -48 -352 -48
WIRE -16 -48 -112 -48
WIRE 176 -48 80 -48
WIRE 240 -48 176 -48
WIRE 320 -48 304 -48
WIRE 496 -48 320 -48
WIRE 176 -16 176 -48
WIRE -112 48 -112 -48
WIRE 32 48 32 16
WIRE 32 48 -32 48
WIRE 128 48 32 48
WIRE 320 48 320 -48
WIRE 320 48 224 48
WIRE -352 112 -352 -48
WIRE 32 128 32 48
WIRE 496 128 496 -48
WIRE 320 176 320 128
WIRE 320 176 96 176
WIRE 320 192 320 176
WIRE -112 224 -112 48
WIRE 32 224 -32 224
WIRE 32 272 32 224
WIRE -352 384 -352 192
WIRE 32 384 32 336
WIRE 32 384 -352 384
WIRE 320 384 320 272
WIRE 320 384 32 384
WIRE 496 384 496 208
WIRE 496 384 320 384
WIRE 496 432 496 384
FLAG 496 432 0
FLAG -352 -48 Vin
IOPIN -352 -48 In
FLAG 496 -48 Vout
IOPIN 496 -48 Out
SYMBOL res -16 32 R90
WINDOW 0 0 56 VBottom 2
WINDOW 3 32 56 VTop 2
SYMATTR InstName R1
SYMATTR Value 220
SYMBOL res -16 208 R90
WINDOW 0 0 56 VBottom 2
WINDOW 3 32 56 VTop 2
SYMATTR InstName R2
SYMATTR Value 1k
SYMBOL res 304 32 R0
SYMATTR InstName R3
SYMATTR Value 1k
SYMBOL res 304 176 R0
SYMATTR InstName R4
SYMATTR Value 1k
SYMBOL res 480 112 R0
SYMATTR InstName RL
SYMATTR Value 2k
SYMBOL res 336 -64 R90
WINDOW 0 0 56 VBottom 2
WINDOW 3 32 56 VTop 2
SYMATTR InstName RS
SYMATTR Value {R}
SYMBOL npn -16 16 R270
SYMATTR InstName Q1
SYMATTR Value 2SC4713K
SYMBOL npn 96 128 M0
SYMATTR InstName Q2
SYMATTR Value 2SC4774
SYMBOL npn 128 -16 M90
SYMATTR InstName Q3
SYMATTR Value 2SC4774
SYMBOL zener 48 336 R180
WINDOW 0 24 64 Left 2
WINDOW 3 24 0 Left 2
SYMATTR InstName D1
SYMATTR Value BZX84C6V2L
SYMBOL voltage -352 96 R0
WINDOW 123 0 0 Left 0
WINDOW 39 0 0 Left 0
SYMATTR InstName V1
SYMATTR Value 5
TEXT -448 448 Left 2 !.op 1m
TEXT -448 480 Left 2 !.step param R 1k 9k 2k
TEXT -448 512 Left 2 !.meas Pin AVG V(vin) * I(V1)
TEXT -448 544 Left 2 !.meas Pout AVG V(vout) * I(RL)
TEXT -448 576 Left 2 !.meas Eff param Pout/Pin
