Version 4
SHEET 1 1512 680
WIRE 384 48 144 48
WIRE -32 80 -192 80
WIRE -192 96 -192 80
WIRE -32 96 -32 80
WIRE 0 96 -32 96
WIRE 144 96 144 48
WIRE 256 112 208 112
WIRE 384 112 384 48
WIRE 384 112 320 112
WIRE 432 112 384 112
WIRE 544 112 496 112
WIRE 208 160 208 112
WIRE 208 160 176 160
WIRE 544 160 544 112
WIRE 592 160 544 160
WIRE 688 160 592 160
WIRE 1040 160 944 160
WIRE 0 176 -32 176
WIRE -192 192 -192 176
WIRE -32 192 -32 176
WIRE -32 192 -192 192
WIRE 1040 192 1040 160
WIRE -32 208 -32 192
WIRE 592 208 592 160
WIRE 208 224 208 160
WIRE 256 224 208 224
WIRE 384 224 320 224
WIRE 432 224 384 224
WIRE 544 224 544 160
WIRE 544 224 496 224
WIRE 144 288 144 176
WIRE 384 288 384 224
WIRE 384 288 144 288
WIRE 176 336 176 160
WIRE 592 336 592 272
WIRE 592 336 176 336
WIRE 816 336 816 256
WIRE 816 336 592 336
WIRE 1040 336 1040 272
WIRE 1040 336 816 336
WIRE 1040 352 1040 336
FLAG 1040 352 0
FLAG -32 208 0
FLAG -192 80 Vin
IOPIN -192 80 In
FLAG 1040 160 Vout
IOPIN 1040 160 Out
SYMBOL ind2 -16 80 R0
SYMATTR InstName L1
SYMATTR Value 150
SYMATTR Type ind
SYMBOL ind2 160 192 R180
WINDOW 0 36 71 Left 2
WINDOW 3 40 33 Left 2
SYMATTR InstName L2
SYMATTR Value 1
SYMATTR Type ind
SYMBOL res 1024 176 R0
SYMATTR InstName R1
SYMATTR Value 5k
SYMBOL voltage -192 80 R0
WINDOW 0 31 35 Left 2
WINDOW 3 -67 125 Left 2
WINDOW 123 0 0 Left 0
WINDOW 39 -67 153 Left 2
SYMATTR InstName V1
SYMATTR Value SINE(0 220 50)
SYMATTR SpiceLine Rser=0.1m
SYMBOL diode 256 128 R270
WINDOW 0 32 32 VTop 2
WINDOW 3 0 32 VBottom 2
SYMATTR InstName D1
SYMATTR Value 1N4148
SYMBOL diode 432 128 R270
WINDOW 0 32 32 VTop 2
WINDOW 3 0 32 VBottom 2
SYMATTR InstName D2
SYMATTR Value 1N4148
SYMBOL diode 256 240 R270
WINDOW 0 32 32 VTop 2
WINDOW 3 0 32 VBottom 2
SYMATTR InstName D3
SYMATTR Value 1N4148
SYMBOL diode 432 240 R270
WINDOW 0 32 32 VTop 2
WINDOW 3 0 32 VBottom 2
SYMATTR InstName D4
SYMATTR Value 1N4148
SYMBOL cap 576 208 R0
SYMATTR InstName C1
SYMATTR Value 470µ
SYMBOL 7805 816 160 R0
SYMATTR InstName U2
TEXT -256 288 Left 2 !.tran 0.05
TEXT 16 72 Left 2 !K1 L1 L2 1
TEXT -256 376 Left 2 !.meas Pin AVG V(vin) * I(V1)
TEXT -256 424 Left 2 !.meas Pout AVG V(vout) * I(RL)
TEXT -248 472 Left 2 !.meas Eff param Pout/Pin
TEXT -248 328 Left 2 !.step param C list 10uF 47uF 100uF 470uF  100uF
