Version 4
SHEET 1 1072 680
TEXT 128 104 Left 2 !.inc inv.cir
TEXT 128 136 Left 2 !;tran 4u
TEXT 128 176 Left 2 !;meas Pout AVG  V(vdd)*I(Vdd)
TEXT 136 216 Left 2 !;meas PPmost AVG V(vdd,out)*Id(M1)+V(in,out)*Ig(M1)+V(vdd,out)*Ib(M1)
TEXT 136 256 Left 2 !;meas PNmost AVG V(out)*Id(M2)+V(in)*Ig(M2)
TEXT 136 296 Left 2 !.dc Vin 0 10 0.01
TEXT 128 328 Left 2 !.step param l 300n 1u 100n
