Version 4
SHEET 1 1080 692
WIRE 80 -16 -32 -16
WIRE 352 -16 80 -16
WIRE 592 0 512 0
WIRE 352 16 304 16
WIRE 80 144 80 -16
WIRE 272 160 240 160
WIRE 304 160 304 16
WIRE 304 160 272 160
WIRE 592 160 592 0
WIRE 672 160 592 160
WIRE 912 176 832 176
WIRE 672 192 592 192
WIRE 304 304 304 160
WIRE 352 304 304 304
WIRE 592 320 592 192
WIRE 592 320 512 320
WIRE 80 336 80 176
WIRE 80 336 -32 336
WIRE 352 336 80 336
WIRE 352 592 304 592
WIRE 272 608 272 160
WIRE 304 608 304 592
WIRE 304 608 272 608
WIRE 640 608 512 608
WIRE 304 624 304 608
WIRE 352 624 304 624
FLAG 416 384 0
FLAG 144 224 0
FLAG 736 240 0
FLAG 416 672 0
FLAG 416 64 0
FLAG 640 608 CARRY
IOPIN 640 608 Out
FLAG 912 176 SUM
IOPIN 912 176 Out
FLAG -32 -16 V1
IOPIN -32 -16 In
FLAG -32 336 V2
IOPIN -32 336 In
FLAG 416 -64 VDD
IOPIN 416 -64 In
FLAG 144 96 VDD
IOPIN 144 96 In
FLAG 416 256 VDD
IOPIN 416 256 In
FLAG 416 544 VDD
IOPIN 416 544 In
FLAG 736 112 VDD
IOPIN 736 112 In
FLAG -272 160 0
FLAG -272 80 VDD
IOPIN -272 80 In
SYMBOL NAND 160 256 R0
SYMATTR InstName X1
SYMBOL NAND 432 96 R0
SYMATTR InstName X2
SYMBOL NAND 432 416 R0
SYMATTR InstName X3
SYMBOL NAND 752 272 R0
SYMATTR InstName X4
SYMBOL NAND 432 704 R0
SYMATTR InstName X5
SYMBOL voltage -272 64 R0
WINDOW 123 0 0 Left 0
WINDOW 39 0 0 Left 0
SYMATTR InstName V1
SYMATTR Value 1.8V
