Version 4
SHEET 1 880 680
FLAG 256 112 SUM
IOPIN 256 112 Out
FLAG 256 144 CARRY
IOPIN 256 144 Out
FLAG 128 112 A
IOPIN 128 112 In
FLAG 128 144 B
IOPIN 128 144 In
FLAG 112 272 A
IOPIN 112 272 In
FLAG 112 432 B
IOPIN 112 432 In
FLAG 112 352 0
FLAG 112 512 0
SYMBOL bocong 288 304 R0
SYMATTR InstName X1
SYMBOL voltage 112 256 R0
WINDOW 123 0 0 Left 0
WINDOW 39 0 0 Left 0
SYMATTR InstName V1
SYMATTR Value PULSE(0 5 0 5ns 5ns 10ms 20ms)
SYMBOL voltage 112 416 R0
WINDOW 123 0 0 Left 0
WINDOW 39 0 0 Left 0
SYMATTR InstName V2
SYMATTR Value PULSE(0 5 0 5ns 5ns 20ms 40ms)
TEXT 192 192 Left 2 !.inc tsmc018.lib
TEXT 192 216 Left 2 !.param l=180n
TEXT 192 240 Left 2 !.param w=0.5u
TEXT 192 264 Left 2 !.tran 0.2
