Version 4
SHEET 1 880 680
WIRE -336 16 -368 16
WIRE -224 16 -336 16
WIRE -96 16 -144 16
WIRE 48 16 -96 16
WIRE 176 16 48 16
WIRE 288 16 176 16
WIRE 336 16 288 16
WIRE 48 64 48 16
WIRE 288 64 288 16
WIRE -336 96 -336 16
WIRE -96 112 -96 16
WIRE 176 112 176 80
WIRE 176 112 112 112
WIRE 176 128 176 112
WIRE 48 160 -32 160
WIRE -336 240 -336 176
WIRE -96 240 -96 208
WIRE -96 240 -336 240
WIRE 176 240 176 208
WIRE 176 240 -96 240
WIRE 288 240 288 144
WIRE 288 240 176 240
WIRE 288 272 288 240
FLAG -368 16 Vin
IOPIN -368 16 In
FLAG 336 16 Vout
IOPIN 336 16 Out
FLAG 288 272 0
SYMBOL res -128 0 R90
WINDOW 0 0 56 VBottom 2
WINDOW 3 32 56 VTop 2
SYMATTR InstName R1
SYMATTR Value 330
SYMBOL res 160 112 R0
WINDOW 3 46 78 Left 2
SYMATTR Value 2k
SYMATTR InstName R2
SYMBOL res 272 48 R0
SYMATTR InstName R3
SYMATTR Value 1k
SYMBOL npn3 -32 112 M0
SYMATTR InstName Q1
SYMATTR Value 2SD2652
SYMBOL npn3 112 64 M0
SYMATTR InstName Q2
SYMATTR Value 2SC3838K
SYMBOL zener 192 80 R180
WINDOW 0 24 64 Left 2
WINDOW 3 24 0 Left 2
SYMATTR InstName D1
SYMATTR Value UDZV6_2B
SYMBOL voltage -336 80 R0
WINDOW 123 0 0 Left 0
WINDOW 39 0 0 Left 0
SYMATTR InstName V1
SYMATTR Value 5V
TEXT -464 248 Left 2 !.tran 2m
TEXT -464 312 Left 2 !.meas Pout AVG V(vout) * I(R3)
TEXT -456 344 Left 2 !.meas Pin AVG V(vin) * I(V1)
TEXT -456 384 Left 2 !.meas Eff param Pout/Pin
