Version 4
SHEET 1 880 704
FLAG 144 144 A
IOPIN 144 144 In
FLAG 144 176 B
IOPIN 144 176 In
FLAG 208 96 VDD
IOPIN 208 96 In
FLAG 304 160 OUT
IOPIN 304 160 Out
FLAG 208 224 0
FLAG 112 304 A
IOPIN 112 304 In
FLAG 112 400 B
IOPIN 112 400 In
FLAG 112 496 VDD
IOPIN 112 496 In
FLAG 192 304 0
FLAG 192 400 0
FLAG 192 496 0
SYMBOL NAND 224 256 R0
SYMATTR InstName X1
SYMBOL voltage 96 304 R270
WINDOW 0 32 56 Invisible 2
WINDOW 3 -32 56 VBottom 2
WINDOW 123 0 0 Left 0
WINDOW 39 0 0 Left 0
SYMATTR InstName V1
SYMATTR Value PULSE(0 5 0 1n 1n 10u 21u)
SYMBOL voltage 96 400 R270
WINDOW 0 32 56 Invisible 2
WINDOW 3 -32 56 VBottom 2
WINDOW 123 0 0 Left 0
WINDOW 39 0 0 Left 0
SYMATTR InstName V2
SYMATTR Value PULSE(0 5 5u 1n 1n 10u 21u)
SYMBOL voltage 96 496 R270
WINDOW 0 32 56 Invisible 2
WINDOW 3 -32 56 VBottom 2
SYMATTR InstName V3
SYMATTR Value 1.8V
TEXT -24 576 Left 2 !.tran 0 110u 1u
TEXT -24 600 Left 2 !.inc tsmc018.lib
TEXT -24 632 Left 2 !.param l= 180n
TEXT -16 664 Left 2 !.param w=0.5u
